Version 4
SHEET 1 880 792
WIRE -160 -432 -272 -432
WIRE -64 -432 -160 -432
WIRE 80 -432 -64 -432
WIRE 160 -432 80 -432
WIRE 368 -432 160 -432
WIRE -64 -384 -64 -432
WIRE 80 -384 80 -432
WIRE 0 -368 -16 -368
WIRE 32 -368 0 -368
WIRE -160 -336 -160 -432
WIRE -64 -336 -160 -336
WIRE 160 -336 160 -432
WIRE 160 -336 80 -336
WIRE 368 -288 368 -432
WIRE 368 -240 368 -272
WIRE -64 -208 -64 -288
WIRE -64 -208 -128 -208
WIRE 0 -208 0 -368
WIRE 0 -208 -64 -208
WIRE 80 -208 80 -288
WIRE 144 -208 80 -208
WIRE 240 -208 144 -208
WIRE 320 -208 240 -208
WIRE 240 -160 240 -208
WIRE 368 -160 368 -192
WIRE 368 -160 304 -160
WIRE -128 -144 -128 -208
WIRE 144 -144 144 -208
WIRE 368 -96 368 -160
WIRE 416 -96 368 -96
WIRE 496 -96 416 -96
WIRE -128 -64 -128 -96
WIRE 144 -64 144 -96
WIRE 416 -48 416 -96
WIRE 496 -48 496 -96
WIRE -128 48 -128 -48
WIRE 0 48 -128 48
WIRE 144 48 144 -48
WIRE 144 48 0 48
WIRE 416 48 416 16
WIRE 464 48 416 48
WIRE 496 48 496 32
WIRE 496 48 464 48
WIRE 464 80 464 48
WIRE -272 96 -272 -432
WIRE -160 96 -272 96
WIRE -272 144 -272 96
WIRE 0 144 0 48
WIRE 368 144 368 -96
WIRE 96 192 0 192
WIRE -272 224 -272 192
WIRE -160 224 -160 96
WIRE -160 224 -224 224
WIRE -48 224 -160 224
WIRE 320 224 -48 224
WIRE 368 224 368 192
WIRE -272 272 -272 240
WIRE 0 272 0 240
WIRE 0 272 -272 272
WIRE 96 272 96 192
WIRE 96 272 0 272
WIRE 368 272 368 240
WIRE 368 272 96 272
FLAG 464 80 0
SYMBOL nmos4 -224 144 M0
SYMATTR InstName M2
SYMBOL nmos4 -48 144 R0
SYMATTR InstName M3
SYMBOL nmos4 320 144 R0
SYMATTR InstName M1
SYMBOL nmos4 -176 -144 R0
SYMATTR InstName M4
SYMBOL nmos4 192 -144 M0
SYMATTR InstName M5
SYMBOL pmos4 -16 -288 R180
SYMATTR InstName M6
SYMBOL pmos4 32 -288 M180
SYMATTR InstName M7
SYMBOL pmos4 320 -288 R0
SYMATTR InstName M8
SYMBOL res 480 -64 R0
SYMATTR InstName R1
SYMBOL cap 400 -48 R0
SYMATTR InstName C1
SYMBOL cap 304 -176 R90
WINDOW 0 0 32 VBottom 2
WINDOW 3 32 32 VTop 2
SYMATTR InstName C2
